&time_control
 run_days                  = 0,
 run_hours                 = 1,
 run_minutes               = 0,
 run_seconds               = 0,
 start_year                = 0001,    0001,    
 start_month               = 01,      01,      
 start_day                 = 01,      01,     
 start_hour                = 02,      02,    
 start_minute              = 00,      00,   
 start_second              = 00,      00,   
 end_year                  = 2013,    2013, 
 end_month                 = 11,      11,   
 end_day                   = 08,      08,  
 end_hour                  = 20,      20,  
 end_minute                = 00,      00,  
 end_second                = 00,      00,  
 interval_seconds          = 10800
 restart                   = .true.,
 restart_interval_s        = 3600, 
 io_form_history           = 2
 io_form_restart           = 2
 io_form_input             = 2
 io_form_boundary          = 2
 debug_level               = 0,
 history_interval_s        = 3600,      600,   
 frames_per_outfile        = 101,       101,
 io_form_auxhist3          = 2
 auxhist3_outname          = "horizontal_slices_d<domain>_<date>",
 auxhist3_interval_s       = 3600,  30, 
 frames_per_auxhist3       = 101,  121,
 override_restart_timers   = .true., 
 write_hist_at_0h_rst      = .true.,
 ignore_iofields_warning   = .true.,
/

&domains
 time_step                 = 0,
 time_step_fract_num       = 3, 
 time_step_fract_den       = 5,
 max_dom                   = 2,
 s_we                      = 1,       1,
 e_we                      = 481,     961,
 s_sn                      = 1,       1,
 e_sn                      = 481,     481,
 s_vert                    = 1,       1,
 e_vert                    = 154,    154,
 vert_refine_method        = 0,       0,
 dx                        = 18.0,   6.0   
 dy                        = 18.0,   6.0     
 grid_id                   = 1,       2,    
 parent_id                 = 1,       1,    
 i_parent_start            = 1,       10,
 j_parent_start            = 1,       10,
 parent_grid_ratio         = 1,       3,
 parent_time_step_ratio    = 1,       3,
 ztop                      = 1595.256, 1595.2561
 hypsometric_opt           = 2,
 feedback                  = 0,
 smooth_option             = 0,
 eta_levels                =
  1.00000,  0.99863,  0.99718,  0.99567,
  0.99408,  0.99241,  0.99065,  0.98881,
  0.98688,  0.98486,  0.98273,  0.98050,
  0.97815,  0.97569,  0.97311,  0.97040,
  0.96756,  0.96457,  0.96144,  0.95815,
  0.95470,  0.95108,  0.94729,  0.94330,
  0.93912,  0.93473,  0.93013,  0.92530,
  0.92023,  0.91492,  0.90934,  0.90350,
  0.89736,  0.89093,  0.88418,  0.87710,
  0.86968,  0.86190,  0.85385,  0.84581,
  0.83778,  0.82977,  0.82176,  0.81377,
  0.80579,  0.79782,  0.78986,  0.78191,
  0.77397,  0.76604,  0.75813,  0.75022,
  0.74233,  0.73445,  0.72658,  0.71872,
  0.71087,  0.70304,  0.69521,  0.68740,
  0.67959,  0.67180,  0.66402,  0.65625,
  0.64849,  0.64074,  0.63300,  0.62527,
  0.61756,  0.60985,  0.60216,  0.59447,
  0.58680,  0.57914,  0.57149,  0.56385,
  0.55622,  0.54860,  0.54099,  0.53340,
  0.52581,  0.51823,  0.51067,  0.50312,
  0.49557,  0.48804,  0.48052,  0.47300,
  0.46550,  0.45801,  0.45053,  0.44306,
  0.43561,  0.42816,  0.42072,  0.41329,
  0.40588,  0.39847,  0.39107,  0.38369,
  0.37631,  0.36895,  0.36160,  0.35425,
  0.34692,  0.33960,  0.33228,  0.32498,
  0.31769,  0.31041,  0.30314,  0.29588,
  0.28863,  0.28138,  0.27415,  0.26693,
  0.25972,  0.25253,  0.24534,  0.23816,
  0.23099,  0.22383,  0.21668,  0.20954,
  0.20241,  0.19529,  0.18818,  0.18109,
  0.17400,  0.16692,  0.15985,  0.15279,
  0.14574,  0.13870,  0.13167,  0.12466,
  0.11765,  0.11065,  0.10366,  0.09668,
  0.08971,  0.08275,  0.07580,  0.06886,
  0.06193,  0.05501,  0.04810,  0.04120,
  0.03431,  0.02743,  0.02056,  0.01369,
  0.00684,  0.00000,
/

&physics
 mp_physics                = 0,       0,    
 ra_lw_physics             = 0,       0,   
 ra_sw_physics             = 0,       0,  
 radt                      = 0,       0, 
 sf_sfclay_physics         = 0,       1, 
 sf_surface_physics        = 0,       0, 
 bl_pbl_physics            = 0,       0, 
 bldt                      = 0,       0, 
 cu_physics                = 0,       0, 
 cudt                      = 0,       0, 
 isfflx                    = 1,
 ifsnow                    = 0,
 icloud                    = 0,
 /

&ideal
 ideal_case                = 9    
/

&fdda
/

&dynamics
 ! Cell Perturbation Method (CPM) - start
 cell_pert                           = .false.,.false.,
 cell_pert_2d                        = .false.,.false.,
 cell_pert_2d_opt                    = 0,      0,
 cell_pert_1d                        = .false.,.false.,
 cell_tvcp                           = .false.,.false.,
 cell_pert_amp                       = 0,      0.78,
 pert_tsec                           = 0,      28.0,
 cell_gppc                           = 0,      8,
 cell_nbcx                           = 0,      3,
 cell_nbcy                           = 0,      3,
 cell_kbottom                        = 0,      2,
 cell_ztop                           = 0,      900.0,
 cell_zbottom                        = 0.0,    0.0,
 cell_pert_RL                        = .false.,.false.,
 cellRL_ztop                         = 0,      400.0,
 cellRL_zbottom                      = 0,      250.0,
 cellRL_pert_amp                     = 0,      0.5,
 cell_pert_cbl                       = .false., .false.,
 cell_cbl_zitop                      = 0.0,    1000.0,
 cell_cbl_uowthst                    = 0.0,    1.93,
 ! momentum perturbation extension
 m_pert_uv                           = .false.,.false.,
 m_pert_w                            = .false.,.false.,
 m_pert_locx                         = 0,      -1,
 m_pert_locy                         = 0,      0,
 cell_width                          = 8,      8,
 mom_pert_gps                        = 24,     24,
 mom_pert_amp_uv                     = 1000.,  1000.,
 mom_pert_amp_w                      = 1500.,  1500.,
 mom_pert_kbot                       = 2,      0,
 mom_pert_ktop                       = 22,     59,
 ! Cell Perturbation Method (CPM) - end
 rk_ord                    = 3,
 diff_opt                  = 2,       2,   
 km_opt                    = 1,       2,  
 m_opt                     = 0,       1, 
 sfs_opt                   = 0,       0, 
 c_s                       = 0.25,    0.18, 
 c_k                       = 0.10,    0.10,
 tke_heat_flux             = 0.00,    0.0, 
 tke_drag_coefficient      = 0.00,    0.00,
 diff_6th_opt              = 0,       0,  
 diff_6th_factor           = 0.12,    0.12,
 base_temp                 = 290.
 w_damping                 = 0,
 damp_opt                  = 2,
 zdamp                     = 400.0,   400.0,
 dampcoef                  = 0.2,     0.2, 
 khdif                     = 0.0,       0,  
 kvdif                     = 0.0,       0,  
 non_hydrostatic           = .true.,  .true., 
 moist_adv_opt             = 1,       1,    
 scalar_adv_opt            = 1,       1,   
 tke_adv_opt               = 1,       1,  
 h_mom_adv_order           = 5,       5, 
 v_mom_adv_order           = 3,       3, 
 h_sca_adv_order           = 5,       5, 
 v_sca_adv_order           = 3,       3, 
 mix_isotropic             = 1,       1, 
 smdiv                     = 0.1,     0.1, 
 emdiv                     = 0.01,    0.01, 
 mix_full_fields           = .true.,  .true., 
 non_hydrostatic           = .true.,  .true.,
 pert_coriolis             = .true., .true.,
 use_baseparam_fr_nml      = .true.,
 cpm_opt                   = 0,       2,
 cpm_meso_pblh             = 0,       0,
 cpm_lim_z                 = 0.0,     300.0,
 cpm_ngc_h                 = 0,       8,
 cpm_ncells_h              = 0,       3,
 cpm_ngc_v                 = 0,       1,
 cpm_nb                    = 0,       1,
 cpm_sb                    = 0,       1,
 cpm_eb                    = 0,       1,
 cpm_wb                    = 0,       1,
 cpm_noff_h                = 0,       0,
 cpm_noff_v                = 0,       0,
 cpm_amp                   = 0.0,     0.0,
 cpm_dt                    = 0.0,     0.0,
 cpm_lambda                = 0.0,     0.5,
 cpm_rim                   = 0.0,    -1.0,
 spec_ideal                = 1,       1,
 spec_init_perts           = .false.
 spec_hfx                  = 0.0,    -10.0,
 spec_sf_heatrate          = 0.0,    0.0,
 spec_z0                   = 0.1,    0.1,
 spec_lat                  = 36.0,
 slice_opt                 = 1,       1, 
 num_slices                = 10,
 slice_heights             = 10.0, 25.0, 50.0, 75.0, 100.0, 150.0, 200.0, 250.0, 375.0, 500.0,
 /
 
&bdy_control
 spec_bdy_width            = 5,
 spec_zone                 = 1,
 relax_zone                = 4,
 periodic_x                = .true., .false.,
 symmetric_xs              = .false.,.false.,
 symmetric_xe              = .false.,.false.,
 open_xs                   = .false.,.false.,
 open_xe                   = .false.,.false.,
 periodic_y                = .true., .false.,
 symmetric_ys              = .false.,.false.,
 symmetric_ye              = .false.,.false.,
 open_ys                   = .false.,.false.,
 open_ye                   = .false.,.false.,
 nested                    = .false., .true.,
/

 &namelist_quilt
 nio_tasks_per_group       = 0,
 nio_groups                = 1,
 /
