&time_control
 run_days                  = 0,
 run_hours                 = 24,
 run_minutes               = 0,
 run_seconds               = 0,
 start_year                = 2013,    2013,    2013,    2013,    2013,    2013,
 start_month               = 11,      11,      11,      11,      11,        11,
 start_day                 = 21,      21,      21,      21,      21,        21,
 start_hour                = 06,      06,      06,      06,      06,        06,
 start_minute              = 00,      00,      00,      00,      00,        00,
 start_second              = 00,      00,      00,      00,      00,        00,
 end_year                  = 2013,    2013,    2013,    2013,    2013,    2013,
 end_month                 = 11,      11,      11,      11,      11,        11,
 end_day                   = 22,      22,      22,      22,      22,        22,
 end_hour                  = 06,      06,      06,      06,      06,        06,
 end_minute                = 00,      00,      00,      00,      00,        00,
 end_second                = 00,      00,      00,      00,      00,        00,
 interval_seconds          = 10800,
 input_from_file           = .true., .true., .true., .false., .false., .false.,
 restart                   = .false.,
 restart_interval_s        = 3600,
 override_restart_timers   = .true.,
 write_hist_at_0h_rst      = .true.,
 io_form_history           = 2
 io_form_restart           = 2
 io_form_input             = 2
 io_form_boundary          = 2
 debug_level               = 0
 history_interval_s        = 600, 600, 600, 15, 15, 15, 
 frames_per_outfile        = 6,   6,   6,   10, 10, 10,
/

&domains
 time_step                 =   15,
 time_step_fract_num       =    0,
 time_step_fract_den       =    1,
 max_dom                   =    3,
 max_ts_locs               =    3,
 ts_buf_size               =  7040,
 max_ts_level              =  88,
 s_we                      =    1,   1,   1,  1,   1,    1, 
 e_we                      =  202, 202, 201, 201, 481, 601,
 s_sn                      =    1,   1,   1,   1,   1,   1, 
 e_sn                      =  202, 202, 201, 201, 481, 601,
 s_vert                    =    1,   1,   1,   1,   1,   1,
 e_vert                    =  178, 178, 178, 178, 178, 178, 
 eta_levels			     =  1.0000000, 0.9988109, 0.9976052, 0.9963820, 0.9951408,
					0.9938802, 0.9925998, 0.9912989, 0.9899759, 0.9886307,
					0.9872618, 0.9858681, 0.9844489, 0.9830028, 0.9815290,
					0.9800259, 0.9784928, 0.9769278, 0.9753299, 0.9736980,
					0.9720301, 0.9703253, 0.9685817, 0.9667978, 0.9649720,
					0.9631028, 0.9611884, 0.9592273, 0.9572170, 0.9551560,
					0.9530425, 0.9508742, 0.9486492, 0.9463657, 0.9440210,
					0.9416131, 0.9391401, 0.9365993, 0.9339883, 0.9313052,
					0.9285470, 0.9257113, 0.9227960, 0.9197982, 0.9167152,
					0.9135445, 0.9102836, 0.9069298, 0.9034802, 0.8999320,
					0.8962832, 0.8925306, 0.8886715, 0.8847037, 0.8806241,
					0.8764299, 0.8721194, 0.8676898, 0.8631384, 0.8584630,
					0.8536614, 0.8487315, 0.8436712, 0.8384785, 0.8331519,
					0.8276896, 0.8220900, 0.8163517, 0.8104742, 0.8044558,
					0.7982963, 0.7919951, 0.7855516, 0.7789659, 0.7722384,
					0.7653694, 0.7583595, 0.7512095, 0.7439210, 0.7364956,
					0.7289345, 0.7212402, 0.7134150, 0.7054614, 0.6973826,
					0.6891811, 0.6808611, 0.6724256, 0.6638792, 0.6552256,
					0.6464697, 0.6376156, 0.6286685, 0.6196334, 0.6105155,
					0.6013203, 0.5920534, 0.5827202, 0.5733267, 0.5638787,
					0.5543823, 0.5448434, 0.5352682, 0.5256627, 0.5160330,
					0.5063851, 0.4967252, 0.4870595, 0.4773936, 0.4677334,
					0.4580853, 0.4484542, 0.4388460, 0.4292663, 0.4197203,
					0.4102132, 0.4007500, 0.3913354, 0.3819741, 0.3726708,
					0.3634299, 0.3542553, 0.3451510, 0.3361210, 0.3271686,
					0.3182974, 0.3095104, 0.3008106, 0.2922010, 0.2836842,
					0.2752624, 0.2669384, 0.2587137, 0.2505907, 0.2425708,
					0.2346557, 0.2268469, 0.2191457, 0.2115529, 0.2040698,
					0.1966973, 0.1894356, 0.1822857, 0.1752481, 0.1683228,
					0.1615101, 0.1548102, 0.1482230, 0.1417484, 0.1353863,
					0.1291363, 0.1229981, 0.1169712, 0.1110550, 0.1052491,
					0.0995527, 0.0939650, 0.0884854, 0.0831128, 0.0778467,
					0.0726859, 0.0676294, 0.0626763, 0.0578255, 0.0530758,
					0.0484263, 0.0438758, 0.0394230, 0.0350667, 0.0308058,
					0.0266390, 0.0225651, 0.0185828, 0.0146907, 0.0108878,
					0.0071725, 0.0035437, 0.0000000,
 p_top_requested           = 10000,
 num_metgrid_levels        = 40,
 num_metgrid_soil_levels   = 4,
 dx                        = 18750, 6250, 1250, 250  50, 10, 
 dy                        = 18750, 6250, 1250, 250, 50, 10,
 grid_id                   =     1,    2,    3,   4,  5,  6,
 parent_id                 =     1,    1,    2,   3,  4,  5,
 i_parent_start            =     1,   68,   82,  80, 78, 40, 
 j_parent_start            =     1,   68,   82,  80, 80, 40,
 parent_grid_ratio         =     1,    3,    5,   5,  5,  5, 
 parent_time_step_ratio    =     1,    3,    5,   5,  5,  5,
 feedback                  =     1,
 smooth_option             =     0,
 /

&physics
 mp_physics                =  3,  3,  3, 3, 3, 3,
 ra_lw_physics             =  1,  1,  1, 1, 1, 1,
 ra_sw_physics             =  1,  1,  1, 1, 1, 1,
 radt                      =  1,  1,  1, 1, 1, 1,
 sf_surface_physics        =  2,  2,  2, 2, 2, 2,
 sf_sfclay_physics         =  2,  2,  2, 2, 2, 2,
 bl_pbl_physics            =  2,  2,  2, 2, 0, 0,
 bldt                      =  0,  0,  0, 0, 0, 0,
 cu_physics                =  1,  0,  0, 0, 0, 0,
 cudt                      =  4,  4,  4, 4, 4, 4,
 isfflx                    =  1,
 ifsnow                    =  0,
 icloud                    =  1,
 surface_input_source      =  1,
 num_soil_layers           =  4,
 num_land_cat              =  21,
 sf_urban_physics          =  0,  0,  0, 0, 0, 0,
 wp_opt                    =  0,  0,  0, 0, 0, 0,
 turbine_opt               =  15,
 n_turbines                =  21,
 n_timeseries              =  100,
 n_tmeturb                 =  100,
 windturb_spec             = "windspec.in",
 turb_loc_in_latlon        = .true.,
 /

&fdda
 grid_fdda                     =        1,        1,        1,        0,        0,       0,
 gfdda_inname                  =   'wrffdda_d<domain>', 
 gfdda_end_h                   =       24,       24,       24,        0,        0,       0,
 gfdda_interval_m              =      180,      180,      180,        0,        0,       0,
 if_no_pbl_nudging_uv          =        1,        1,        1,        1,        1,       1,
 if_no_pbl_nudging_t           =        1,        1,        1,        1,        1,       1,
 if_no_pbl_nudging_q           =        1,        1,        1,        1,        1,       1,
 if_zfac_uv                    =        0,        0,        0,        0,        0,       0,
 if_zfac_t                     =        0,        0,        0,        0,        0,       0,
 if_zfac_q                     =        0,        0,        0,        0,        0,       0,
 k_zfac_uv                     =        0,        0,        0,        0,        0,       0,
 k_zfac_t                      =        0,        0,        0,        0,        0,       0,
 k_zfac_q                      =        0,        0,        0,        0,        0,       0,
 guv                           =   0.0003,   0.0003,   0.0003,   0.0003,   0.0003,  0.0003,
 gt                            =   0.0003,   0.0003,   0.0003,   0.0003,   0.0003,  0.0003,
 gq                            =   0.0003,   0.0003,   0.0003,   0.0003,   0.0003,  0.0003,
 fgdt                          =        0,        0,        0,        0,        0,       0,
 if_ramping                    =        1,
 dtramp_min                    =       60,
 io_form_gfdda                 =        2,
/

&dynamics
 w_damping                 =    1,
 diff_opt                  =    1,        1,      1,      1,      1,      1,
 km_opt                    =    4,        4,      4,      4,      2,      2,
 diff_6th_opt              =    0,        0,      0,      0,      0,      0,
 diff_6th_factor           = 0.12,     0.12,   0.12,   0.12,   0.12,   0.12,
 base_temp                 = 290.
 damp_opt                  = 3,
 zdamp                     =  5000.,  5000.,  5000.,  5000.,  5000.,  5000.,
 dampcoef                  =    0.2,    0.2,    0.2,    0.2,     0.2,   0.2,
 khdif                     =      0,      0,      0,      0,       0,     0,
 kvdif                     =      0,      0,      0,      0,       0,     0,
 non_hydrostatic           = .true., .true., .true., .true., .true., .true.,
 moist_adv_opt             =      1,      1,      1,      1,      1,      1,
 scalar_adv_opt            =      1,      1,      1,      1,      1,      1,
 tke_adv_opt               =      1,      1,      1,      1,      1,      1, 
 h_mom_adv_order           =      5,      5,      5,      5,      5,      5,
 v_mom_adv_order           =      3,      3,      3,      3,      3,      3, 
 h_sca_adv_order           =      5,      5,      5,      5,      5,      5, 
 v_sca_adv_order           =      3,      3,      3,      3,      3,      3, 
 /
 
&bdy_control
 spec_bdy_width            = 5,
 spec_zone                 = 1,
 relax_zone                = 4,
 specified                 =  .true., .false., .false., .false., .false., .false.,
 nested                    = .false.,  .true.,  .true.,  .true.,  .true.,  .true.,
/

 &namelist_quilt
 nio_tasks_per_group       = 0,
 nio_groups                = 1,
 /
