   1000.00  300.000000    0.000000
     25.00  300.000000    0.000000    8.457234   -3.078181
     50.00  300.000000    0.000000    8.457234   -3.078181
     75.00  300.000000    0.000000    8.457234   -3.078181
    100.00  300.000000    0.000000    8.457234   -3.078181
    125.00  300.000000    0.000000    8.457234   -3.078181
    150.00  300.000000    0.000000    8.457234   -3.078181
    175.00  300.000000    0.000000    8.457234   -3.078181
    200.00  300.000000    0.000000    8.457234   -3.078181
    225.00  300.000000    0.000000    8.457234   -3.078181
    250.00  300.000000    0.000000    8.457234   -3.078181
    275.00  300.000000    0.000000    8.457234   -3.078181
    300.00  300.000000    0.000000    8.457234   -3.078181
    325.00  300.000000    0.000000    8.457234   -3.078181
    350.00  300.000000    0.000000    8.457234   -3.078181
    375.00  300.000000    0.000000    8.457234   -3.078181
    400.00  300.000000    0.000000    8.457234   -3.078181
    425.00  300.000000    0.000000    8.457234   -3.078181
    450.00  300.000000    0.000000    8.457234   -3.078181
    475.00  300.000000    0.000000    8.457234   -3.078181
    500.00  300.000000    0.000000    8.457234   -3.078181
    525.00  300.000000    0.000000    8.457234   -3.078181
    550.00  300.000000    0.000000    8.457234   -3.078181
    575.00  300.000000    0.000000    8.457234   -3.078181
    600.00  300.000000    0.000000    8.457234   -3.078181
    625.00  300.000000    0.000000    8.457234   -3.078181
    650.00  300.000000    0.000000    8.457234   -3.078181
    675.00  300.000000    0.000000    8.457234   -3.078181
    700.00  300.000000    0.000000    8.457234   -3.078181
    725.00  300.000000    0.000000    8.457234   -3.078181
    750.00  300.000000    0.000000    8.457234   -3.078181
    775.00  300.000000    0.000000    8.457234   -3.078181
    800.00  300.000000    0.000000    8.457234   -3.078181
    825.00  300.000000    0.000000    8.457234   -3.078181
    850.00  300.000000    0.000000    8.457234   -3.078181
    875.00  300.000000    0.000000    8.457234   -3.078181
    900.00  300.000000    0.000000    8.457234   -3.078181
    925.00  300.000000    0.000000    8.457234   -3.078181
    950.00  300.000000    0.000000    8.457234   -3.078181
    975.00  300.000000    0.000000    8.457234   -3.078181
   1000.00  300.000000    0.000000    8.457234   -3.078181
   1025.00  300.049988    0.000000    8.457234   -3.078181
   1050.00  300.099976    0.000000    8.457234   -3.078181
   1075.00  300.149963    0.000000    8.457234   -3.078181
   1100.00  300.199951    0.000000    8.457234   -3.078181
   1125.00  300.249939    0.000000    8.457234   -3.078181
   1150.00  300.299927    0.000000    8.457234   -3.078181
   1175.00  300.349915    0.000000    8.457234   -3.078181
   1200.00  300.399902    0.000000    8.457234   -3.078181
   1225.00  300.449890    0.000000    8.457234   -3.078181
   1250.00  300.499878    0.000000    8.457234   -3.078181
   1275.00  300.549866    0.000000    8.457234   -3.078181
   1300.00  300.599854    0.000000    8.457234   -3.078181
   1325.00  300.649841    0.000000    8.457234   -3.078181
   1350.00  300.699829    0.000000    8.457234   -3.078181
   1375.00  300.749817    0.000000    8.457234   -3.078181
   1400.00  300.799805    0.000000    8.457234   -3.078181
   1425.00  300.849792    0.000000    8.457234   -3.078181
   1450.00  300.899780    0.000000    8.457234   -3.078181
   1475.00  300.949768    0.000000    8.457234   -3.078181
   1500.00  300.999756    0.000000    8.457234   -3.078181
   1525.00  301.049744    0.000000    8.457234   -3.078181
   1550.00  301.099731    0.000000    8.457234   -3.078181
   1575.00  301.149719    0.000000    8.457234   -3.078181
   1600.00  301.199707    0.000000    8.457234   -3.078181
   1625.00  301.249695    0.000000    8.457234   -3.078181
   1650.00  301.299683    0.000000    8.457234   -3.078181
   1675.00  301.349670    0.000000    8.457234   -3.078181
   1700.00  301.399658    0.000000    8.457234   -3.078181
   1725.00  301.449646    0.000000    8.457234   -3.078181
   1750.00  301.499634    0.000000    8.457234   -3.078181
   1775.00  301.549622    0.000000    8.457234   -3.078181
   1800.00  301.599609    0.000000    8.457234   -3.078181
   1825.00  301.649597    0.000000    8.457234   -3.078181
   1850.00  301.699585    0.000000    8.457234   -3.078181
   1875.00  301.749573    0.000000    8.457234   -3.078181
   1900.00  301.799561    0.000000    8.457234   -3.078181
   1925.00  301.849548    0.000000    8.457234   -3.078181
   1950.00  301.899536    0.000000    8.457234   -3.078181
   1975.00  301.949524    0.000000    8.457234   -3.078181
   2000.00  301.999512    0.000000    8.457234   -3.078181
   2025.00  302.049500    0.000000    8.457234   -3.078181
   2050.00  302.099487    0.000000    8.457234   -3.078181
   2075.00  302.149475    0.000000    8.457234   -3.078181
   2100.00  302.199463    0.000000    8.457234   -3.078181
   2125.00  302.249451    0.000000    8.457234   -3.078181
   2150.00  302.299438    0.000000    8.457234   -3.078181
   2175.00  302.349426    0.000000    8.457234   -3.078181
   2200.00  302.399414    0.000000    8.457234   -3.078181
   2225.00  302.449402    0.000000    8.457234   -3.078181
   2250.00  302.499390    0.000000    8.457234   -3.078181
   2275.00  302.549377    0.000000    8.457234   -3.078181
   2300.00  302.599365    0.000000    8.457234   -3.078181
   2325.00  302.649353    0.000000    8.457234   -3.078181
   2350.00  302.699341    0.000000    8.457234   -3.078181
   2375.00  302.749329    0.000000    8.457234   -3.078181
   2400.00  302.799316    0.000000    8.457234   -3.078181
   2425.00  302.849304    0.000000    8.457234   -3.078181
   2450.00  302.899292    0.000000    8.457234   -3.078181
   2475.00  302.949280    0.000000    8.457234   -3.078181
   2500.00  302.999268    0.000000    8.457234   -3.078181
   2525.00  303.049255    0.000000    8.457234   -3.078181
   2550.00  303.099243    0.000000    8.457234   -3.078181
   2575.00  303.149231    0.000000    8.457234   -3.078181
   2600.00  303.199219    0.000000    8.457234   -3.078181
   2625.00  303.249207    0.000000    8.457234   -3.078181
   2650.00  303.299194    0.000000    8.457234   -3.078181
   2675.00  303.349182    0.000000    8.457234   -3.078181
   2700.00  303.399170    0.000000    8.457234   -3.078181
   2725.00  303.449158    0.000000    8.457234   -3.078181
   2750.00  303.499146    0.000000    8.457234   -3.078181
   2775.00  303.549133    0.000000    8.457234   -3.078181
   2800.00  303.599121    0.000000    8.457234   -3.078181
   2825.00  303.649109    0.000000    8.457234   -3.078181
   2850.00  303.699097    0.000000    8.457234   -3.078181
   2875.00  303.749084    0.000000    8.457234   -3.078181
   2900.00  303.799072    0.000000    8.457234   -3.078181
   2925.00  303.849060    0.000000    8.457234   -3.078181
   2950.00  303.899048    0.000000    8.457234   -3.078181
   2975.00  303.949036    0.000000    8.457234   -3.078181
   3000.00  303.999023    0.000000    8.457234   -3.078181
   3025.00  304.049011    0.000000    8.457234   -3.078181
   3050.00  304.098999    0.000000    8.457234   -3.078181
   3075.00  304.148987    0.000000    8.457234   -3.078181
   3100.00  304.198975    0.000000    8.457234   -3.078181
   3125.00  304.248962    0.000000    8.457234   -3.078181
   3150.00  304.298950    0.000000    8.457234   -3.078181
   3175.00  304.348938    0.000000    8.457234   -3.078181
   3200.00  304.398926    0.000000    8.457234   -3.078181
   3225.00  304.448914    0.000000    8.457234   -3.078181
   3250.00  304.498901    0.000000    8.457234   -3.078181
   3275.00  304.548889    0.000000    8.457234   -3.078181
   3300.00  304.598877    0.000000    8.457234   -3.078181
   3325.00  304.648865    0.000000    8.457234   -3.078181
   3350.00  304.698853    0.000000    8.457234   -3.078181
   3375.00  304.748840    0.000000    8.457234   -3.078181
   3400.00  304.798828    0.000000    8.457234   -3.078181
   3425.00  304.848816    0.000000    8.457234   -3.078181
   3450.00  304.898804    0.000000    8.457234   -3.078181
   3475.00  304.948792    0.000000    8.457234   -3.078181
   3500.00  304.998779    0.000000    8.457234   -3.078181
   3525.00  305.048767    0.000000    8.457234   -3.078181
   3550.00  305.098755    0.000000    8.457234   -3.078181
   3575.00  305.148743    0.000000    8.457234   -3.078181
   3600.00  305.198730    0.000000    8.457234   -3.078181
   3625.00  305.248718    0.000000    8.457234   -3.078181
   3650.00  305.298706    0.000000    8.457234   -3.078181
   3675.00  305.348694    0.000000    8.457234   -3.078181
   3700.00  305.398682    0.000000    8.457234   -3.078181
   3725.00  305.448669    0.000000    8.457234   -3.078181
   3750.00  305.498657    0.000000    8.457234   -3.078181
   3775.00  305.548645    0.000000    8.457234   -3.078181
   3800.00  305.598633    0.000000    8.457234   -3.078181
   3825.00  305.648621    0.000000    8.457234   -3.078181
   3850.00  305.698608    0.000000    8.457234   -3.078181
   3875.00  305.748596    0.000000    8.457234   -3.078181
   3900.00  305.798584    0.000000    8.457234   -3.078181
   3925.00  305.848572    0.000000    8.457234   -3.078181
   3950.00  305.898560    0.000000    8.457234   -3.078181
   3975.00  305.948547    0.000000    8.457234   -3.078181
   4000.00  305.998535    0.000000    8.457234   -3.078181
   4025.00  306.048523    0.000000    8.457234   -3.078181
   4050.00  306.098511    0.000000    8.457234   -3.078181
   4075.00  306.148499    0.000000    8.457234   -3.078181
   4100.00  306.198486    0.000000    8.457234   -3.078181
   4125.00  306.248474    0.000000    8.457234   -3.078181
   4150.00  306.298462    0.000000    8.457234   -3.078181
   4175.00  306.348450    0.000000    8.457234   -3.078181
   4200.00  306.398438    0.000000    8.457234   -3.078181
   4225.00  306.448425    0.000000    8.457234   -3.078181
   4250.00  306.498413    0.000000    8.457234   -3.078181
   4275.00  306.548401    0.000000    8.457234   -3.078181
   4300.00  306.598389    0.000000    8.457234   -3.078181
   4325.00  306.648376    0.000000    8.457234   -3.078181
   4350.00  306.698364    0.000000    8.457234   -3.078181
   4375.00  306.748352    0.000000    8.457234   -3.078181
   4400.00  306.798340    0.000000    8.457234   -3.078181
   4425.00  306.848328    0.000000    8.457234   -3.078181
   4450.00  306.898315    0.000000    8.457234   -3.078181
   4475.00  306.948303    0.000000    8.457234   -3.078181
   4500.00  306.998291    0.000000    8.457234   -3.078181
   4525.00  307.048279    0.000000    8.457234   -3.078181
   4550.00  307.098267    0.000000    8.457234   -3.078181
   4575.00  307.148254    0.000000    8.457234   -3.078181
   4600.00  307.198242    0.000000    8.457234   -3.078181
   4625.00  307.248230    0.000000    8.457234   -3.078181
   4650.00  307.298218    0.000000    8.457234   -3.078181
   4675.00  307.348206    0.000000    8.457234   -3.078181
   4700.00  307.398193    0.000000    8.457234   -3.078181
   4725.00  307.448181    0.000000    8.457234   -3.078181
   4750.00  307.498169    0.000000    8.457234   -3.078181
   4775.00  307.548157    0.000000    8.457234   -3.078181
   4800.00  307.598145    0.000000    8.457234   -3.078181
   4825.00  307.648132    0.000000    8.457234   -3.078181
   4850.00  307.698120    0.000000    8.457234   -3.078181
   4875.00  307.748108    0.000000    8.457234   -3.078181
   4900.00  307.798096    0.000000    8.457234   -3.078181
   4925.00  307.848083    0.000000    8.457234   -3.078181
   4950.00  307.898071    0.000000    8.457234   -3.078181
   4975.00  307.948059    0.000000    8.457234   -3.078181
   5000.00  307.998047    0.000000    8.457234   -3.078181
