 &time_control
 run_days                            = 0,
 run_hours                           = 1,
 run_minutes                         = 0,
 run_seconds                         = 0,
 start_year                          = 0001, 0001, 0001,
 start_month                         = 01,   01,   01,
 start_day                           = 01,   01,   01,
 start_hour                          = 00,   00,   00,
 start_minute                        = 00,   00,   00,
 start_second                        = 00,   00,   00,
 end_year                            = 0001, 0001, 0001,
 end_month                           = 01,   01,   01,
 end_day                             = 01,   01,   01,
 end_hour                            = 06,   01,   01,
 end_minute                          = 00,   00,   00,
 end_second                          = 00,   00,   00,
 history_interval                    = 5,   60,   1,
 frames_per_outfile                  = 1000, 1000, 1000,
 restart                             = .false.,
 restart_interval_s                  = 3600,
 io_form_history                     = 2,
 io_form_restart                     = 2,
 io_form_input                       = 2,
 io_form_boundary                    = 2,
 override_restart_timers             = .true.,
 write_hist_at_0h_rst	             = .true.,
 debug_level                         = 0
 /

 &domains
 time_step                           = 0,
 time_step_fract_num                 = 1,
 time_step_fract_den                 = 6,
 max_dom                             = 1,
 s_we                                = 1,     1,     1,
 e_we                                = 65,   361,   151,
 s_sn                                = 1,     1,     1,
 e_sn                                = 65,   241,   151,
 s_vert                              = 1,     1,     1,
 e_vert                              = 199,   105,    41,
 dx                                  = 16.0,  11.0,    11, 
 dy                                  = 16.0,  11.0,    11, 
 ztop                                = 1500.11,  1400,  2000,
 grid_id                             = 1,     2,     3,
 parent_id                           = 0,     1,     2,
 i_parent_start                      = 0,     10,    15,
 j_parent_start                      = 0,     10,    15,
 parent_grid_ratio                   = 1,     3,     3,
 parent_time_step_ratio              = 1,     3,     3,
 feedback                            = 0,
 smooth_option                       = 0,
 hypsometric_opt                     = 1,
 eta_levels                          = 1.00000,  0.99709,  0.99419,  0.99128,
                                       0.98838,  0.98548,  0.98251,  0.97946,
                                       0.97634,  0.97315,  0.96987,  0.96652,
                                       0.96308,  0.95956,  0.95596,  0.95226,
                                       0.94848,  0.94460,  0.94063,  0.93657,
                                       0.93240,  0.92813,  0.92376,  0.91929,
                                       0.91470,  0.91001,  0.90520,  0.90027,
                                       0.89522,  0.89006,  0.88477,  0.87935,
                                       0.87380,  0.86811,  0.86244,  0.85677,
                                       0.85110,  0.84544,  0.83978,  0.83413,
                                       0.82848,  0.82284,  0.81721,  0.81158,
                                       0.80595,  0.80034,  0.79472,  0.78911,
                                       0.78351,  0.77791,  0.77232,  0.76673,
                                       0.76115,  0.75557,  0.75000,  0.74443,
                                       0.73887,  0.73332,  0.72777,  0.72222,
                                       0.71668,  0.71115,  0.70562,  0.70009,
                                       0.69457,  0.68906,  0.68355,  0.67804,
                                       0.67254,  0.66705,  0.66156,  0.65608,
                                       0.65060,  0.64513,  0.63966,  0.63420,
                                       0.62874,  0.62329,  0.61784,  0.61240,
                                       0.60696,  0.60153,  0.59610,  0.59068,
                                       0.58526,  0.57985,  0.57445,  0.56904,
                                       0.56365,  0.55826,  0.55287,  0.54749,
                                       0.54211,  0.53674,  0.53138,  0.52602,
                                       0.52066,  0.51531,  0.50996,  0.50462,
                                       0.49929,  0.49396,  0.48863,  0.48331,
                                       0.47799,  0.47268,  0.46738,  0.46208,
                                       0.45678,  0.45149,  0.44620,  0.44092,
                                       0.43565,  0.43038,  0.42511,  0.41985,
                                       0.41459,  0.40934,  0.40410,  0.39886,
                                       0.39362,  0.38839,  0.38316,  0.37794,
                                       0.37272,  0.36751,  0.36231,  0.35710,
                                       0.35191,  0.34671,  0.34153,  0.33634,
                                       0.33117,  0.32599,  0.32083,  0.31566,
                                       0.31051,  0.30535,  0.30020,  0.29506,
                                       0.28992,  0.28479,  0.27966,  0.27453,
                                       0.26942,  0.26430,  0.25919,  0.25409,
                                       0.24899,  0.24389,  0.23880,  0.23371,
                                       0.22863,  0.22356,  0.21849,  0.21342,
                                       0.20836,  0.20330,  0.19825,  0.19320,
                                       0.18816,  0.18312,  0.17809,  0.17306,
                                       0.16803,  0.16301,  0.15800,  0.15299,
                                       0.14798,  0.14298,  0.13799,  0.13300,
                                       0.12801,  0.12303,  0.11805,  0.11308,
                                       0.10811,  0.10315,  0.09819,  0.09324,
                                       0.08829,  0.08334,  0.07841,  0.07347,
                                       0.06854,  0.06361,  0.05869,  0.05378,
                                       0.04886,  0.04396,  0.03906,  0.03416,
                                       0.02926,  0.02438,  0.01949,  0.01461,
                                       0.00974,  0.00487,  0.00000,
/

 &physics
 mp_physics                          = 0,     0,     0,
 ra_lw_physics                       = 0,     0,     0,
 ra_sw_physics                       = 0,     0,     0,
 radt                                = 0,     0,     0,
 sf_sfclay_physics                   = 0,     0,     0,
 sf_surface_physics                  = 0,     0,     0,
 bl_pbl_physics                      = 0,     0,     0,
 bldt                                = 0,     0,     0,
 cu_physics                          = 0,     0,     0,
 cudt                                = 0,     0,     0,
 isfflx                              = 2,
 num_soil_layers                     = 4,
 wp_opt                              = 3,
 turbine_opt                         = 15,
 n_turbines                          = 1,
 n_timeseries                        = 100,
 n_tmeturb                           = 100,
 windturb_spec                       = "windspec.in",
 /

 &fdda
 /

 &dynamics
 rk_ord                              = 3,
 diff_opt                            = 2,      2,      2,
 km_opt                              = 2,      2,      2,
 sfs_opt                             = 0,      0,      1,
 m_opt                               = 1,      1,      0,
 damp_opt                            = 2,
 zdamp                               = 500.,   300.,  5000.,
 dampcoef                            = 0.003,  0.003,  0.2
 c_s                                 = 0.18,   0.18,   0.18,
 c_k                                 = 0.10,   0.10,   0.10,
 mix_isotropic                       = 1,      1,      1,
 smdiv                               = 0.1,    0.1,    0.1,
 emdiv                               = 0.01,   0.01,   0.01,
 epssm                               = 0.1,    0.1,    0.1
 tke_heat_flux                       = 0.0,    0.0,    0.0,
 tke_drag_coefficient                = 0.0,    0.0,    0.0,
 time_step_sound                     = 6,      6,      6,
 h_mom_adv_order                     = 5,      5,      5,
 v_mom_adv_order                     = 3,      3,      3,
 h_sca_adv_order                     = 5,      5,      5,
 v_sca_adv_order                     = 3,      3,      3,
 mix_full_fields                     = .true., .true., .true.,
 non_hydrostatic                     = .true., .true., .true.,
 pert_coriolis                       = .true., .true.,
 use_baseparam_fr_nml                = .true., 
 /

 &bdy_control
 spec_bdy_width                      = 1,
 spec_zone                           = 1,
 relax_zone                          = 0,
 periodic_x                          = .true., .false.,.false.,
 symmetric_xs                        = .false.,.false.,.false.,
 symmetric_xe                        = .false.,.false.,.false.,
 open_xs                             = .false.,.false.,.false.,
 open_xe                             = .false.,.false.,.false.,
 periodic_y                          = .true., .false.,.false.,
 symmetric_ys                        = .false.,.false.,.false.,
 symmetric_ye                        = .false.,.false.,.false.,
 open_ys                             = .false.,.false.,.false.,
 open_ye                             = .false.,.false.,.false.,
 nested                              = .false., .true., .true.,
 /

 &grib2
 /

 &namelist_quilt
 nio_tasks_per_group = 0,
 nio_groups = 1,
 /

&ideal
ideal_case = 9
/
