     1000.00  289.750000    0.000000
        0.00  289.500000    0.000000   15.592600    -7.944800
      600.00  289.500000    0.000000   15.592600    -7.944800
     1700.00  337.500000    0.000000   15.592600    -7.944800
