     1000.00  288.000000    0.000000
        0.00  288.000000    0.000000   15.952000    -8.339300
      250.00  288.000000    0.000000   15.952000    -8.339300
     1700.00  336.000000    0.000000   15.952000    -8.339300
