&time_control
 run_days                  = 0,
 run_hours                 = 1,
 run_minutes               = 0,
 run_seconds               = 0,
 start_year                = 0001,    0001,    
 start_month               = 01,      01,      
 start_day                 = 01,      01,     
 start_hour                = 04,      04,    
 start_minute              = 00,      00,   
 start_second              = 00,      00,   
 end_year                  = 2013,    2013, 
 end_month                 = 11,      11,   
 end_day                   = 08,      08,  
 end_hour                  = 20,      20,  
 end_minute                = 00,      00,  
 end_second                = 00,      00,  
 interval_seconds          = 10800
 restart                   = .true.,
 restart_interval_s        = 3600, 
 io_form_history           = 2
 io_form_restart           = 2
 io_form_input             = 2
 io_form_boundary          = 2
 debug_level               = 0,
 history_interval_s        = 3600,       600,   
 frames_per_outfile        = 101,       101,
 io_form_auxhist3          = 2
 auxhist3_outname          = "horizontal_slices_d<domain>_<date>",
 auxhist3_interval_s       = 3600,  30, 
 frames_per_auxhist3       = 101, 121,
 override_restart_timers   = .true., 
 write_hist_at_0h_rst      = .true.,
 ignore_iofields_warning   = .true.,
/

&domains
 time_step                 = 0,
 time_step_fract_num       = 3, 
 time_step_fract_den       = 5,
 max_dom                   = 2,
 s_we                      = 1,       1,
 e_we                      = 481,     961,
 s_sn                      = 1,       1,
 e_sn                      = 481,     481,
 s_vert                    = 1,       1,
 e_vert                    = 88,     88,
 vert_refine_method        = 0,       0,
 dx                        = 96.0,   24.0   
 dy                        = 96.0,   24.0     
 grid_id                   = 1,       2,    
 parent_id                 = 1,       1,    
 i_parent_start            = 1,       10,
 j_parent_start            = 1,       10,
 parent_grid_ratio         = 1,       3,
 parent_time_step_ratio    = 1,       3,
 ztop                      = 3213.024 3213.024
 hypsometric_opt           = 2,
 feedback                  = 0,
 smooth_option             = 0,
 eta_levels                =
  1.00000,  0.99701,  0.99387,  0.99059,
  0.98714,  0.98352,  0.97972,  0.97574,
  0.97157,  0.96719,  0.96261,  0.95779,
  0.95275,  0.94746,  0.94192,  0.93612,
  0.93003,  0.92365,  0.91697,  0.90997,
  0.90263,  0.89495,  0.88691,  0.87848,
  0.86966,  0.86042,  0.85076,  0.84064,
  0.83005,  0.81898,  0.80739,  0.79528,
  0.78261,  0.76936,  0.75552,  0.74105,
  0.72594,  0.71016,  0.69390,  0.67773,
  0.66166,  0.64567,  0.62977,  0.61397,
  0.59825,  0.58262,  0.56708,  0.55163,
  0.53626,  0.52098,  0.50579,  0.49068,
  0.47566,  0.46073,  0.44587,  0.43110,
  0.41642,  0.40181,  0.38729,  0.37285,
  0.35850,  0.34422,  0.33002,  0.31591,
  0.30187,  0.28791,  0.27404,  0.26024,
  0.24651,  0.23287,  0.21930,  0.20581,
  0.19239,  0.17905,  0.16579,  0.15260,
  0.13948,  0.12644,  0.11347,  0.10058,
  0.08775,  0.07500,  0.06233,  0.04972,
  0.03718,  0.02472,  0.01232,  0.00000,
/

&physics
 mp_physics                = 0,       0,    
 ra_lw_physics             = 0,       0,   
 ra_sw_physics             = 0,       0,  
 radt                      = 0,       0, 
 sf_sfclay_physics         = 0,       1, 
 sf_surface_physics        = 0,       0, 
 bl_pbl_physics            = 0,       0, 
 bldt                      = 0,       0, 
 cu_physics                = 0,       0, 
 cudt                      = 0,       0, 
 isfflx                    = 1,
 ifsnow                    = 0,
 icloud                    = 0,
 /

&ideal
 ideal_case                = 9    
/

&fdda
/

&dynamics
 rk_ord                    = 3,
 diff_opt                  = 2,       2,   
 km_opt                    = 1,       2,  
 m_opt                     = 0,       1, 
 sfs_opt                   = 0,       0, 
 c_s                       = 0.25,    0.18, 
 c_k                       = 0.10,    0.10,
 tke_heat_flux             = 0.00,    0.0, 
 tke_drag_coefficient      = 0.00,    0.00,
 diff_6th_opt              = 0,       0,  
 diff_6th_factor           = 0.12,    0.12,
 base_temp                 = 290.
 w_damping                 = 0,
 damp_opt                  = 2,
 zdamp                     = 800.0,   800.0,
 dampcoef                  = 0.2,     0.2, 
 khdif                     = 0.0,       0,  
 kvdif                     = 0.0,       0,  
 non_hydrostatic           = .true.,  .true., 
 moist_adv_opt             = 1,       1,    
 scalar_adv_opt            = 1,       1,   
 tke_adv_opt               = 1,       1,  
 h_mom_adv_order           = 5,       5, 
 v_mom_adv_order           = 3,       3, 
 h_sca_adv_order           = 5,       5, 
 v_sca_adv_order           = 3,       3, 
 mix_isotropic             = 1,       1, 
 smdiv                     = 0.1,     0.1, 
 emdiv                     = 0.01,    0.01, 
 mix_full_fields           = .true.,  .true., 
 non_hydrostatic           = .true.,  .true.,
 pert_coriolis             = .true., .true.,
 use_baseparam_fr_nml      = .true.,
 cpm_opt                   = 0,       2,
 cpm_meso_pblh             = 0,       0,
 cpm_lim_z                 = 0.0,     800.0,
 cpm_ngc_h                 = 0,       8,
 cpm_ncells_h              = 0,       3,
 cpm_ngc_v                 = 0,       1,
 cpm_nb                    = 0,       1,
 cpm_sb                    = 0,       1,
 cpm_eb                    = 0,       1,
 cpm_wb                    = 0,       1,
 cpm_noff_h                = 0,       0,
 cpm_noff_v                = 0,       0,
 cpm_amp                   = 0.0,     0.0,
 cpm_dt                    = 0.0,     0.0,
 cpm_lambda                = 0.0,     0.5,
 cpm_rim                   = 0.0,    -1.0,
 spec_ideal                = 1,       1,
 spec_init_perts           = .false.
 spec_hfx                  = 0.0,    100.0,
 spec_sf_heatrate          = 0.0,    0.0,
 spec_z0                   = 0.1,    0.1,
 spec_lat                  = 36.0,
 slice_opt                 = 1,       1, 
 num_slices                = 10,
 slice_heights             = 10.0, 25.0, 50.0, 75.0, 100.0, 150.0, 200.0, 250.0, 375.0, 500.0,
 /
 
&bdy_control
 spec_bdy_width            = 5,
 spec_zone                 = 1,
 relax_zone                = 4,
 periodic_x                = .true., .false.,
 symmetric_xs              = .false.,.false.,
 symmetric_xe              = .false.,.false.,
 open_xs                   = .false.,.false.,
 open_xe                   = .false.,.false.,
 periodic_y                = .true., .false.,
 symmetric_ys              = .false.,.false.,
 symmetric_ye              = .false.,.false.,
 open_ys                   = .false.,.false.,
 open_ye                   = .false.,.false.,
 nested                    = .false., .true.,
/

 &namelist_quilt
 nio_tasks_per_group       = 0,
 nio_groups                = 1,
 /
