     1000.00  288.000000    0.000000
        0.00  288.000000    0.000000   15.331000    -9.431000
      250.00  288.000000    0.000000   15.331000    -9.431000
     1700.00  336.000000    0.000000   15.331000    -9.431000
