&time_control
 run_days                  = 0,
 run_hours                 = 1,
 run_minutes               = 0,
 run_seconds               = 00,
 start_year                = 0001,
 start_month               = 01,
 start_day                 = 02,
 start_hour                = 20,
 start_minute              = 00,
 start_second              = 00,
 end_year                  = 2013,
 end_month                 = 11,
 end_day                   = 08,
 end_hour                  = 20, 
 end_minute                = 00,  
 end_second                = 00,  
 interval_seconds          = 10800
 restart                   = .true.,
 restart_interval_s        = 3600, 
 io_form_history           = 2
 io_form_restart           = 2
 io_form_input             = 2
 io_form_boundary          = 2
 debug_level               = 0,
 history_interval_s        = 600,  
 frames_per_outfile        = 6,
 io_form_auxhist3          = 2
 auxhist3_outname          = "horizontal_slices_d<domain>_<date>",
 auxhist3_interval_s       = 30,
 frames_per_auxhist3       = 121,
 override_restart_timers   = .true., 
 write_hist_at_0h_rst      = .true.,
 ignore_iofields_warning   = .true.,
/

&domains
 time_step                 = 0,
 time_step_fract_num       = 1, 
 time_step_fract_den       = 5,
 max_dom                   = 1,
 s_we                      = 1,
 e_we                      = 481,
 s_sn                      = 1,
 e_sn                      = 481,
 s_vert                    = 1,
 e_vert                    = 121,
 vert_refine_method        = 0,
 dx                        = 12.0,
 dy                        = 12.0,
 grid_id                   = 1,
 parent_id                 = 1,  
 i_parent_start            = 1,
 j_parent_start            = 1,
 parent_grid_ratio         = 1,
 parent_time_step_ratio    = 1,
 ztop                      = 2398.5,
 hypsometric_opt           = 2,
 feedback                  = 0,
 smooth_option             = 0,
 eta_levels                =
  1.00000,  0.99809,  0.99608,  0.99397,
  0.99176,  0.98944,  0.98700,  0.98444,
  0.98176,  0.97895,  0.97599,  0.97289,
  0.96964,  0.96623,  0.96265,  0.95890,
  0.95496,  0.95083,  0.94650,  0.94196,
  0.93719,  0.93219,  0.92695,  0.92146,
  0.91569,  0.90965,  0.90332,  0.89668,
  0.88972,  0.88243,  0.87478,  0.86677,
  0.85838,  0.84958,  0.84037,  0.83072,
  0.82061,  0.81003,  0.79910,  0.78819,
  0.77732,  0.76648,  0.75567,  0.74489,
  0.73414,  0.72342,  0.71273,  0.70207,
  0.69144,  0.68084,  0.67027,  0.65973,
  0.64923,  0.63875,  0.62830,  0.61787,
  0.60748,  0.59712,  0.58679,  0.57649,
  0.56621,  0.55597,  0.54575,  0.53556,
  0.52540,  0.51527,  0.50517,  0.49510,
  0.48505,  0.47504,  0.46505,  0.45509,
  0.44516,  0.43525,  0.42538,  0.41553,
  0.40571,  0.39592,  0.38615,  0.37642,
  0.36671,  0.35702,  0.34737,  0.33774,
  0.32814,  0.31857,  0.30902,  0.29950,
  0.29001,  0.28055,  0.27111,  0.26169,
  0.25231,  0.24295,  0.23362,  0.22431,
  0.21503,  0.20578,  0.19655,  0.18735,
  0.17817,  0.16902,  0.15990,  0.15080,
  0.14173,  0.13268,  0.12366,  0.11466,
  0.10569,  0.09675,  0.08783,  0.07893,
  0.07006,  0.06122,  0.05240,  0.04360,
  0.03483,  0.02609,  0.01737,  0.00867,
  0.00000,
/

&physics
 mp_physics                = 0,
 ra_lw_physics             = 0,
 ra_sw_physics             = 0,
 radt                      = 0,
 sf_sfclay_physics         = 1,
 sf_surface_physics        = 0,
 bl_pbl_physics            = 0,
 bldt                      = 0,
 cu_physics                = 0,
 cudt                      = 0, 
 isfflx                    = 1,
 ifsnow                    = 0,
 icloud                    = 0,
 /

&ideal
 ideal_case                = 9    
/

&fdda
/

&dynamics
 rk_ord                    = 3,
 diff_opt                  = 2,  
 km_opt                    = 2,  
 m_opt                     = 1,
 sfs_opt                   = 0, 
 c_s                       = 0.25, 
 c_k                       = 0.10,
 tke_heat_flux             = 0.00,
 tke_drag_coefficient      = 0.00,
 diff_6th_opt              = 0,
 diff_6th_factor           = 0.12,
 base_temp                 = 290.
 w_damping                 = 0,
 damp_opt                  = 2,
 zdamp                     = 600.0,
 dampcoef                  = 0.2,
 khdif                     = 0,
 kvdif                     = 0,
 non_hydrostatic           = .true.,
 moist_adv_opt             = 1,
 scalar_adv_opt            = 1,
 tke_adv_opt               = 1,
 h_mom_adv_order           = 5,
 v_mom_adv_order           = 3,
 h_sca_adv_order           = 5,
 v_sca_adv_order           = 3,
 mix_isotropic             = 1,
 smdiv                     = 0.1,
 emdiv                     = 0.01,
 mix_full_fields           = .true.,
 non_hydrostatic           = .true.,
 pert_coriolis             = .true.,
 use_baseparam_fr_nml      = .true.,
 spec_ideal                = 1,
 spec_init_perts           = .true.
 spec_hfx                  = 0.0,
 spec_sf_heatrate          = 0.0,
 spec_z0                   = 0.1,
 spec_lat                  = 36.0,
 slice_opt                 = 1, 
 num_slices                = 10,
 slice_heights             = 10.0, 25.0, 50.0, 75.0, 100.0, 150.0, 200.0, 250.0, 375.0, 500.0,
 /
 
&bdy_control
 spec_bdy_width            = 5,
 spec_zone                 = 1,
 relax_zone                = 4,
 periodic_x                = .true., .false.,
 symmetric_xs              = .false.,.false.,
 symmetric_xe              = .false.,.false.,
 open_xs                   = .false.,.false.,
 open_xe                   = .false.,.false.,
 periodic_y                = .true., .false.,
 symmetric_ys              = .false.,.false.,
 symmetric_ye              = .false.,.false.,
 open_ys                   = .false.,.false.,
 open_ye                   = .false.,.false.,
 nested                    = .false., .true.,
/

 &namelist_quilt
 nio_tasks_per_group       = 0,
 nio_groups                = 1,
 /
